 xtb: 6.7.1 (edcfbbe)
          07282612503D

  6  5  0     0  0            999 V2000
   -0.3619    0.0243   -0.0169 C   0  0  0  0  0  0  0  0  0  0  0  0
    0.9109   -0.5313   -0.2387 O   0  0  0  0  0  0  0  0  0  0  0  0
   -0.5895    0.1024    1.0518 H   0  0  0  0  0  0  0  0  0  0  0  0
   -0.4569    1.0152   -0.4743 H   0  0  0  0  0  0  0  0  0  0  0  0
   -1.0792   -0.6494   -0.4821 H   0  0  0  0  0  0  0  0  0  0  0  0
    1.5766    0.0388    0.1601 H   0  0  0  0  0  0  0  0  0  0  0  0
  1  2  1  0  0  0  0
  1  3  1  0  0  0  0
  1  4  1  0  0  0  0
  1  5  1  0  0  0  0
  2  6  1  0  0  0  0
M  END
